Circuit: * D:\Max's Things\Experiments\Arduino Audio Looper\Draft1.asc

Direct Newton iteration for .op point succeeded.

Date: Mon Jul 11 13:07:26 2022
Total elapsed time: 0.054 seconds.

tnom = 27
temp = 27
method = modified trap
totiter = 2089
traniter = 2082
tranpoints = 1042
accept = 1042
rejected = 0
matrix size = 9
fillins = 0
solver = Normal
Matrix Compiler1: 322 bytes object code size  0.1/0.1/[0.0]
Matrix Compiler2: 599 bytes object code size  0.1/0.1/[0.1]

