Circuit: * D:\Max's Things\Experiments\Arduino Audio Looper\Amplifier_Looper_Try1.asc

Direct Newton iteration for .op point succeeded.

Date: Sun Sep 25 19:38:49 2022
Total elapsed time: 0.216 seconds.

tnom = 27
temp = 27
method = modified trap
totiter = 2091
traniter = 2082
tranpoints = 1042
accept = 1042
rejected = 0
matrix size = 14
fillins = 0
solver = Normal
Matrix Compiler1: 634 bytes object code size  0.1/0.1/[0.0]
Matrix Compiler2: 1018 bytes object code size  0.1/0.1/[0.1]

